<?xml version="1.0" encoding="UTF-8"?>

<!-- generated on 2024-08-29 14:00:37 by Eclipse SUMO netedit Version 1.20.0
<configuration xmlns:xsi="http://www.w3.org/2001/XMLSchema-instance" xsi:noNamespaceSchemaLocation="http://sumo.dlr.de/xsd/neteditConfiguration.xsd">

    <input>
        <sumo-net-file value="D:\sumo\Test_runs\Tests\ITSC_remodeled\Random_Grid_!\sim_files\network.net.xml"/>
    </input>

    <output>
        <output-file value="D:\sumo\Test_runs\Tests\ITSC_remodeled\Random_Grid_!\sim_files\network.net.xml"/>
    </output>

    <processing>
        <geometry.min-radius.fix.railways value="false"/>
        <geometry.max-grade.fix value="false"/>
        <offset.disable-normalization value="true"/>
        <lefthand value="0"/>
    </processing>

    <junctions>
        <no-turnarounds value="true"/>
        <junctions.corner-detail value="5"/>
        <junctions.limit-turn-speed value="5.50"/>
        <rectangular-lane-cut value="0"/>
    </junctions>

    <pedestrian>
        <walkingareas value="0"/>
    </pedestrian>

</configuration>
-->

<net version="1.20" junctionCornerDetail="5" limitTurnSpeed="5.50" xmlns:xsi="http://www.w3.org/2001/XMLSchema-instance" xsi:noNamespaceSchemaLocation="http://sumo.dlr.de/xsd/net_file.xsd">

    <location netOffset="800.00,1000.00" convBoundary="0.00,0.00,1400.00,2000.00" origBoundary="-800.00,-1000.00,600.00,1000.00" projParameter="!"/>

    <edge id=":1_0" function="internal">
        <lane id=":1_0_0" index="0" speed="6.51" length="9.03" shape="798.40,1007.20 798.05,1004.75 797.00,1003.00 795.25,1001.95 792.80,1001.60"/>
    </edge>
    <edge id=":1_1" function="internal">
        <lane id=":1_1_0" index="0" speed="13.89" length="14.40" shape="798.40,1007.20 798.40,992.80"/>
    </edge>
    <edge id=":1_2" function="internal">
        <lane id=":1_2_0" index="0" speed="8.00" length="4.07" shape="798.40,1007.20 798.95,1003.35 799.04,1003.20"/>
    </edge>
    <edge id=":1_3" function="internal">
        <lane id=":1_3_0" index="0" speed="3.65" length="1.44" shape="798.40,1007.20 799.20,1006.00"/>
    </edge>
    <edge id=":1_16" function="internal">
        <lane id=":1_16_0" index="0" speed="8.00" length="10.13" shape="799.04,1003.20 800.60,1000.60 803.35,998.95 807.20,998.40"/>
    </edge>
    <edge id=":1_17" function="internal">
        <lane id=":1_17_0" index="0" speed="3.65" length="3.23" shape="799.20,1006.00 800.00,1005.60 800.80,1006.00 801.60,1007.20"/>
    </edge>
    <edge id=":1_4" function="internal">
        <lane id=":1_4_0" index="0" speed="6.51" length="9.03" shape="807.20,1001.60 804.75,1001.95 803.00,1003.00 801.95,1004.75 801.60,1007.20"/>
    </edge>
    <edge id=":1_5" function="internal">
        <lane id=":1_5_0" index="0" speed="13.89" length="14.40" shape="807.20,1001.60 792.80,1001.60"/>
    </edge>
    <edge id=":1_6" function="internal">
        <lane id=":1_6_0" index="0" speed="8.00" length="14.19" shape="807.20,1001.60 803.35,1001.05 800.60,999.40 798.95,996.65 798.40,992.80"/>
    </edge>
    <edge id=":1_7" function="internal">
        <lane id=":1_7_0" index="0" speed="3.65" length="4.67" shape="807.20,1001.60 806.00,1000.80 805.60,1000.00 806.00,999.20 807.20,998.40"/>
    </edge>
    <edge id=":1_8" function="internal">
        <lane id=":1_8_0" index="0" speed="6.51" length="9.03" shape="801.60,992.80 801.95,995.25 803.00,997.00 804.75,998.05 807.20,998.40"/>
    </edge>
    <edge id=":1_9" function="internal">
        <lane id=":1_9_0" index="0" speed="13.89" length="14.40" shape="801.60,992.80 801.60,1007.20"/>
    </edge>
    <edge id=":1_10" function="internal">
        <lane id=":1_10_0" index="0" speed="8.00" length="4.07" shape="801.60,992.80 801.05,996.65 800.96,996.80"/>
    </edge>
    <edge id=":1_11" function="internal">
        <lane id=":1_11_0" index="0" speed="3.65" length="1.44" shape="801.60,992.80 800.80,994.00"/>
    </edge>
    <edge id=":1_18" function="internal">
        <lane id=":1_18_0" index="0" speed="8.00" length="10.13" shape="800.96,996.80 799.40,999.40 796.65,1001.05 792.80,1001.60"/>
    </edge>
    <edge id=":1_19" function="internal">
        <lane id=":1_19_0" index="0" speed="3.65" length="3.23" shape="800.80,994.00 800.00,994.40 799.20,994.00 798.40,992.80"/>
    </edge>
    <edge id=":1_12" function="internal">
        <lane id=":1_12_0" index="0" speed="6.51" length="9.03" shape="792.80,998.40 795.25,998.05 797.00,997.00 798.05,995.25 798.40,992.80"/>
    </edge>
    <edge id=":1_13" function="internal">
        <lane id=":1_13_0" index="0" speed="13.89" length="14.40" shape="792.80,998.40 807.20,998.40"/>
    </edge>
    <edge id=":1_14" function="internal">
        <lane id=":1_14_0" index="0" speed="8.00" length="14.19" shape="792.80,998.40 796.65,998.95 799.40,1000.60 801.05,1003.35 801.60,1007.20"/>
    </edge>
    <edge id=":1_15" function="internal">
        <lane id=":1_15_0" index="0" speed="3.65" length="4.67" shape="792.80,998.40 794.00,999.20 794.40,1000.00 794.00,1000.80 792.80,1001.60"/>
    </edge>
    <edge id=":10_0" function="internal">
        <lane id=":10_0_0" index="0" speed="9.05" length="11.91" shape="705.98,1001.60 703.57,1002.06 701.32,1003.43 699.24,1005.72 697.33,1008.92"/>
    </edge>
    <edge id=":10_1" function="internal">
        <lane id=":10_1_0" index="0" speed="13.89" length="15.16" shape="705.98,1001.60 690.82,1001.60"/>
    </edge>
    <edge id=":10_2" function="internal">
        <lane id=":10_2_0" index="0" speed="3.65" length="1.44" shape="705.98,1001.60 704.78,1000.80"/>
    </edge>
    <edge id=":10_9" function="internal">
        <lane id=":10_9_0" index="0" speed="3.65" length="3.23" shape="704.78,1000.80 704.38,1000.00 704.78,999.20 705.98,998.40"/>
    </edge>
    <edge id=":10_3" function="internal">
        <lane id=":10_3_0" index="0" speed="13.89" length="15.16" shape="690.82,998.40 705.98,998.40"/>
    </edge>
    <edge id=":10_4" function="internal">
        <lane id=":10_4_0" index="0" speed="7.44" length="4.86" shape="690.82,998.40 695.64,999.06"/>
    </edge>
    <edge id=":10_5" function="internal">
        <lane id=":10_5_0" index="0" speed="3.65" length="1.44" shape="690.82,998.40 692.02,999.20"/>
    </edge>
    <edge id=":10_10" function="internal">
        <lane id=":10_10_0" index="0" speed="7.44" length="11.54" shape="695.64,999.06 698.33,1001.03 698.89,1004.32 697.33,1008.92"/>
    </edge>
    <edge id=":10_11" function="internal">
        <lane id=":10_11_0" index="0" speed="3.65" length="3.23" shape="692.02,999.20 692.42,1000.00 692.02,1000.80 690.82,1001.60"/>
    </edge>
    <edge id=":10_6" function="internal">
        <lane id=":10_6_0" index="0" speed="5.74" length="9.18" shape="694.46,1007.49 695.34,1004.91 695.03,1003.07 693.52,1001.97 690.82,1001.60"/>
    </edge>
    <edge id=":10_7" function="internal">
        <lane id=":10_7_0" index="0" speed="10.24" length="15.45" shape="694.46,1007.49 696.89,1003.51 699.62,1000.67 702.65,998.97 705.98,998.40"/>
    </edge>
    <edge id=":10_8" function="internal">
        <lane id=":10_8_0" index="0" speed="3.65" length="4.67" shape="694.46,1007.49 695.72,1006.78 696.61,1006.78 697.15,1007.49 697.33,1008.92"/>
    </edge>
    <edge id=":1011_0" function="internal">
        <lane id=":1011_0_0" index="0" speed="6.51" length="9.03" shape="498.40,307.20 498.05,304.75 497.00,303.00 495.25,301.95 492.80,301.60"/>
    </edge>
    <edge id=":1011_1" function="internal">
        <lane id=":1011_1_0" index="0" speed="9.65" length="13.64" shape="498.40,307.20 498.79,303.42 499.96,300.28 501.90,297.77 504.63,295.90"/>
    </edge>
    <edge id=":1011_2" function="internal">
        <lane id=":1011_2_0" index="0" speed="3.65" length="4.67" shape="498.40,307.20 499.20,306.00 500.00,305.60 500.80,306.00 501.60,307.20"/>
    </edge>
    <edge id=":1011_3" function="internal">
        <lane id=":1011_3_0" index="0" speed="8.37" length="10.08" shape="506.06,298.76 504.11,300.12 502.72,301.98 501.88,304.34 501.60,307.20"/>
    </edge>
    <edge id=":1011_4" function="internal">
        <lane id=":1011_4_0" index="0" speed="13.89" length="13.70" shape="506.06,298.76 502.81,300.15 499.63,301.02 496.35,301.47 492.80,301.60"/>
    </edge>
    <edge id=":1011_5" function="internal">
        <lane id=":1011_5_0" index="0" speed="3.65" length="1.44" shape="506.06,298.76 504.63,298.58"/>
    </edge>
    <edge id=":1011_9" function="internal">
        <lane id=":1011_9_0" index="0" speed="3.65" length="3.23" shape="504.63,298.58 503.92,298.04 503.92,297.15 504.63,295.90"/>
    </edge>
    <edge id=":1011_6" function="internal">
        <lane id=":1011_6_0" index="0" speed="13.89" length="12.24" shape="492.80,298.40 496.13,298.32 498.91,297.99 501.60,297.23 504.63,295.90"/>
    </edge>
    <edge id=":1011_7" function="internal">
        <lane id=":1011_7_0" index="0" speed="8.00" length="3.77" shape="492.80,298.40 496.53,298.93"/>
    </edge>
    <edge id=":1011_8" function="internal">
        <lane id=":1011_8_0" index="0" speed="3.65" length="1.44" shape="492.80,298.40 494.00,299.20"/>
    </edge>
    <edge id=":1011_10" function="internal">
        <lane id=":1011_10_0" index="0" speed="8.00" length="10.42" shape="496.53,298.93 496.65,298.95 499.40,300.60 501.05,303.35 501.60,307.20"/>
    </edge>
    <edge id=":1011_11" function="internal">
        <lane id=":1011_11_0" index="0" speed="3.65" length="3.23" shape="494.00,299.20 494.40,300.00 494.00,300.80 492.80,301.60"/>
    </edge>
    <edge id=":1043_0" function="internal">
        <lane id=":1043_0_0" index="0" speed="3.90" length="2.58" shape="898.40,603.20 898.30,602.50 898.00,602.00 897.50,601.70 896.80,601.60"/>
    </edge>
    <edge id=":1043_1" function="internal">
        <lane id=":1043_1_0" index="0" speed="6.08" length="7.74" shape="896.80,598.40 898.90,598.70 900.40,599.60 901.30,601.10 901.60,603.20"/>
    </edge>
    <edge id=":1056_0" function="internal">
        <lane id=":1056_0_0" index="0" speed="6.51" length="9.03" shape="198.40,1107.20 198.05,1104.75 197.00,1103.00 195.25,1101.95 192.80,1101.60"/>
    </edge>
    <edge id=":1056_1" function="internal">
        <lane id=":1056_1_0" index="0" speed="13.89" length="14.40" shape="198.40,1107.20 198.40,1092.80"/>
    </edge>
    <edge id=":1056_2" function="internal">
        <lane id=":1056_2_0" index="0" speed="8.00" length="4.07" shape="198.40,1107.20 198.95,1103.35 199.04,1103.20"/>
    </edge>
    <edge id=":1056_3" function="internal">
        <lane id=":1056_3_0" index="0" speed="3.65" length="1.44" shape="198.40,1107.20 199.20,1106.00"/>
    </edge>
    <edge id=":1056_16" function="internal">
        <lane id=":1056_16_0" index="0" speed="8.00" length="10.13" shape="199.04,1103.20 200.60,1100.60 203.35,1098.95 207.20,1098.40"/>
    </edge>
    <edge id=":1056_17" function="internal">
        <lane id=":1056_17_0" index="0" speed="3.65" length="3.23" shape="199.20,1106.00 200.00,1105.60 200.80,1106.00 201.60,1107.20"/>
    </edge>
    <edge id=":1056_4" function="internal">
        <lane id=":1056_4_0" index="0" speed="6.51" length="9.03" shape="207.20,1101.60 204.75,1101.95 203.00,1103.00 201.95,1104.75 201.60,1107.20"/>
    </edge>
    <edge id=":1056_5" function="internal">
        <lane id=":1056_5_0" index="0" speed="13.89" length="14.40" shape="207.20,1101.60 192.80,1101.60"/>
    </edge>
    <edge id=":1056_6" function="internal">
        <lane id=":1056_6_0" index="0" speed="8.00" length="14.19" shape="207.20,1101.60 203.35,1101.05 200.60,1099.40 198.95,1096.65 198.40,1092.80"/>
    </edge>
    <edge id=":1056_7" function="internal">
        <lane id=":1056_7_0" index="0" speed="3.65" length="4.67" shape="207.20,1101.60 206.00,1100.80 205.60,1100.00 206.00,1099.20 207.20,1098.40"/>
    </edge>
    <edge id=":1056_8" function="internal">
        <lane id=":1056_8_0" index="0" speed="6.51" length="9.03" shape="201.60,1092.80 201.95,1095.25 203.00,1097.00 204.75,1098.05 207.20,1098.40"/>
    </edge>
    <edge id=":1056_9" function="internal">
        <lane id=":1056_9_0" index="0" speed="13.89" length="14.40" shape="201.60,1092.80 201.60,1107.20"/>
    </edge>
    <edge id=":1056_10" function="internal">
        <lane id=":1056_10_0" index="0" speed="8.00" length="4.07" shape="201.60,1092.80 201.05,1096.65 200.96,1096.80"/>
    </edge>
    <edge id=":1056_11" function="internal">
        <lane id=":1056_11_0" index="0" speed="3.65" length="1.44" shape="201.60,1092.80 200.80,1094.00"/>
    </edge>
    <edge id=":1056_18" function="internal">
        <lane id=":1056_18_0" index="0" speed="8.00" length="10.13" shape="200.96,1096.80 199.40,1099.40 196.65,1101.05 192.80,1101.60"/>
    </edge>
    <edge id=":1056_19" function="internal">
        <lane id=":1056_19_0" index="0" speed="3.65" length="3.23" shape="200.80,1094.00 200.00,1094.40 199.20,1094.00 198.40,1092.80"/>
    </edge>
    <edge id=":1056_12" function="internal">
        <lane id=":1056_12_0" index="0" speed="6.51" length="9.03" shape="192.80,1098.40 195.25,1098.05 197.00,1097.00 198.05,1095.25 198.40,1092.80"/>
    </edge>
    <edge id=":1056_13" function="internal">
        <lane id=":1056_13_0" index="0" speed="13.89" length="14.40" shape="192.80,1098.40 207.20,1098.40"/>
    </edge>
    <edge id=":1056_14" function="internal">
        <lane id=":1056_14_0" index="0" speed="8.00" length="14.19" shape="192.80,1098.40 196.65,1098.95 199.40,1100.60 201.05,1103.35 201.60,1107.20"/>
    </edge>
    <edge id=":1056_15" function="internal">
        <lane id=":1056_15_0" index="0" speed="3.65" length="4.67" shape="192.80,1098.40 194.00,1099.20 194.40,1100.00 194.00,1100.80 192.80,1101.60"/>
    </edge>
    <edge id=":1063_0" function="internal">
        <lane id=":1063_0_0" index="0" speed="13.89" length="14.40" shape="1298.40,1107.20 1298.40,1092.80"/>
    </edge>
    <edge id=":1063_1" function="internal">
        <lane id=":1063_1_0" index="0" speed="8.00" length="4.07" shape="1298.40,1107.20 1298.95,1103.35 1299.04,1103.20"/>
    </edge>
    <edge id=":1063_2" function="internal">
        <lane id=":1063_2_0" index="0" speed="3.65" length="1.44" shape="1298.40,1107.20 1299.20,1106.00"/>
    </edge>
    <edge id=":1063_9" function="internal">
        <lane id=":1063_9_0" index="0" speed="8.00" length="10.13" shape="1299.04,1103.20 1300.60,1100.60 1303.35,1098.95 1307.20,1098.40"/>
    </edge>
    <edge id=":1063_10" function="internal">
        <lane id=":1063_10_0" index="0" speed="3.65" length="3.23" shape="1299.20,1106.00 1300.00,1105.60 1300.80,1106.00 1301.60,1107.20"/>
    </edge>
    <edge id=":1063_3" function="internal">
        <lane id=":1063_3_0" index="0" speed="6.51" length="9.03" shape="1307.20,1101.60 1304.75,1101.95 1303.00,1103.00 1301.95,1104.75 1301.60,1107.20"/>
    </edge>
    <edge id=":1063_4" function="internal">
        <lane id=":1063_4_0" index="0" speed="8.00" length="14.19" shape="1307.20,1101.60 1303.35,1101.05 1300.60,1099.40 1298.95,1096.65 1298.40,1092.80"/>
    </edge>
    <edge id=":1063_5" function="internal">
        <lane id=":1063_5_0" index="0" speed="3.65" length="4.67" shape="1307.20,1101.60 1306.00,1100.80 1305.60,1100.00 1306.00,1099.20 1307.20,1098.40"/>
    </edge>
    <edge id=":1063_6" function="internal">
        <lane id=":1063_6_0" index="0" speed="6.51" length="9.03" shape="1301.60,1092.80 1301.95,1095.25 1303.00,1097.00 1304.75,1098.05 1307.20,1098.40"/>
    </edge>
    <edge id=":1063_7" function="internal">
        <lane id=":1063_7_0" index="0" speed="13.89" length="14.40" shape="1301.60,1092.80 1301.60,1107.20"/>
    </edge>
    <edge id=":1063_8" function="internal">
        <lane id=":1063_8_0" index="0" speed="3.65" length="1.44" shape="1301.60,1092.80 1300.80,1094.00"/>
    </edge>
    <edge id=":1063_11" function="internal">
        <lane id=":1063_11_0" index="0" speed="3.65" length="3.23" shape="1300.80,1094.00 1300.00,1094.40 1299.20,1094.00 1298.40,1092.80"/>
    </edge>
    <edge id=":1089_0" function="internal">
        <lane id=":1089_0_0" index="0" speed="6.51" length="9.03" shape="198.40,907.20 198.05,904.75 197.00,903.00 195.25,901.95 192.80,901.60"/>
    </edge>
    <edge id=":1089_1" function="internal">
        <lane id=":1089_1_0" index="0" speed="13.89" length="16.80" shape="198.40,907.20 198.75,903.20 199.70,898.94 201.06,894.78 202.67,891.08"/>
    </edge>
    <edge id=":1089_2" function="internal">
        <lane id=":1089_2_0" index="0" speed="8.42" length="15.82" shape="198.40,907.20 199.07,903.35 201.09,900.60 204.46,898.95 209.18,898.40"/>
    </edge>
    <edge id=":1089_3" function="internal">
        <lane id=":1089_3_0" index="0" speed="3.65" length="4.67" shape="198.40,907.20 199.20,906.00 200.00,905.60 200.80,906.00 201.60,907.20"/>
    </edge>
    <edge id=":1089_4" function="internal">
        <lane id=":1089_4_0" index="0" speed="7.02" length="10.67" shape="209.18,901.60 205.86,901.95 203.49,903.00 202.07,904.75 201.60,907.20"/>
    </edge>
    <edge id=":1089_5" function="internal">
        <lane id=":1089_5_0" index="0" speed="13.89" length="16.38" shape="209.18,901.60 192.80,901.60"/>
    </edge>
    <edge id=":1089_6" function="internal">
        <lane id=":1089_6_0" index="0" speed="7.44" length="4.86" shape="209.18,901.60 204.36,900.94"/>
    </edge>
    <edge id=":1089_7" function="internal">
        <lane id=":1089_7_0" index="0" speed="3.65" length="1.44" shape="209.18,901.60 207.98,900.80"/>
    </edge>
    <edge id=":1089_16" function="internal">
        <lane id=":1089_16_0" index="0" speed="7.44" length="11.54" shape="204.36,900.94 201.67,898.97 201.11,895.68 202.67,891.08"/>
    </edge>
    <edge id=":1089_17" function="internal">
        <lane id=":1089_17_0" index="0" speed="3.65" length="3.23" shape="207.98,900.80 207.58,900.00 207.98,899.20 209.18,898.40"/>
    </edge>
    <edge id=":1089_8" function="internal">
        <lane id=":1089_8_0" index="0" speed="5.74" length="9.18" shape="205.54,892.51 204.66,895.09 204.97,896.93 206.48,898.03 209.18,898.40"/>
    </edge>
    <edge id=":1089_9" function="internal">
        <lane id=":1089_9_0" index="0" speed="13.89" length="15.33" shape="205.54,892.51 203.98,895.99 202.73,899.66 201.90,903.42 201.60,907.20"/>
    </edge>
    <edge id=":1089_10" function="internal">
        <lane id=":1089_10_0" index="0" speed="10.47" length="16.19" shape="205.54,892.51 203.16,895.85 199.85,898.76 196.20,900.82 192.80,901.60"/>
    </edge>
    <edge id=":1089_11" function="internal">
        <lane id=":1089_11_0" index="0" speed="3.65" length="4.67" shape="205.54,892.51 204.28,893.22 203.39,893.22 202.85,892.51 202.67,891.08"/>
    </edge>
    <edge id=":1089_12" function="internal">
        <lane id=":1089_12_0" index="0" speed="9.42" length="12.97" shape="192.80,898.40 195.75,897.94 198.37,896.57 200.68,894.28 202.67,891.08"/>
    </edge>
    <edge id=":1089_13" function="internal">
        <lane id=":1089_13_0" index="0" speed="13.89" length="16.38" shape="192.80,898.40 209.18,898.40"/>
    </edge>
    <edge id=":1089_14" function="internal">
        <lane id=":1089_14_0" index="0" speed="8.00" length="4.07" shape="192.80,898.40 196.65,898.95 196.80,899.04"/>
    </edge>
    <edge id=":1089_15" function="internal">
        <lane id=":1089_15_0" index="0" speed="3.65" length="1.44" shape="192.80,898.40 194.00,899.20"/>
    </edge>
    <edge id=":1089_18" function="internal">
        <lane id=":1089_18_0" index="0" speed="8.00" length="10.13" shape="196.80,899.04 199.40,900.60 201.05,903.35 201.60,907.20"/>
    </edge>
    <edge id=":1089_19" function="internal">
        <lane id=":1089_19_0" index="0" speed="3.65" length="3.23" shape="194.00,899.20 194.40,900.00 194.00,900.80 192.80,901.60"/>
    </edge>
    <edge id=":1097_0" function="internal">
        <lane id=":1097_0_0" index="0" speed="6.08" length="7.74" shape="103.20,1101.60 101.10,1101.30 99.60,1100.40 98.70,1098.90 98.40,1096.80"/>
    </edge>
    <edge id=":1097_1" function="internal">
        <lane id=":1097_1_0" index="0" speed="3.90" length="2.58" shape="101.60,1096.80 101.70,1097.50 102.00,1098.00 102.50,1098.30 103.20,1098.40"/>
    </edge>
    <edge id=":1106_0" function="internal">
        <lane id=":1106_0_0" index="0" speed="4.20" length="1.26" shape="1298.40,901.33 1298.37,901.01 1298.28,900.71 1298.14,900.44 1297.93,900.19"/>
    </edge>
    <edge id=":1106_1" function="internal">
        <lane id=":1106_1_0" index="0" speed="3.65" length="1.44" shape="1298.40,901.33 1299.20,900.13"/>
    </edge>
    <edge id=":1106_3" function="internal">
        <lane id=":1106_3_0" index="0" speed="3.65" length="3.23" shape="1299.20,900.13 1300.00,899.73 1300.80,900.13 1301.60,901.33"/>
    </edge>
    <edge id=":1106_2" function="internal">
        <lane id=":1106_2_0" index="0" speed="6.63" length="3.77" shape="1300.19,897.93 1300.81,898.67 1301.25,899.48 1301.51,900.37 1301.60,901.33"/>
    </edge>
    <edge id=":1122_0" function="internal">
        <lane id=":1122_0_0" index="0" speed="3.65" length="4.67" shape="1400.00,1098.40 1401.20,1099.20 1401.60,1100.00 1401.20,1100.80 1400.00,1101.60"/>
    </edge>
    <edge id=":1151_0" function="internal">
        <lane id=":1151_0_0" index="0" speed="6.51" length="9.03" shape="98.40,907.20 98.05,904.75 97.00,903.00 95.25,901.95 92.80,901.60"/>
    </edge>
    <edge id=":1151_1" function="internal">
        <lane id=":1151_1_0" index="0" speed="13.89" length="14.40" shape="98.40,907.20 98.40,892.80"/>
    </edge>
    <edge id=":1151_2" function="internal">
        <lane id=":1151_2_0" index="0" speed="8.00" length="4.07" shape="98.40,907.20 98.95,903.35 99.04,903.20"/>
    </edge>
    <edge id=":1151_3" function="internal">
        <lane id=":1151_3_0" index="0" speed="3.65" length="1.44" shape="98.40,907.20 99.20,906.00"/>
    </edge>
    <edge id=":1151_16" function="internal">
        <lane id=":1151_16_0" index="0" speed="8.00" length="10.13" shape="99.04,903.20 100.60,900.60 103.35,898.95 107.20,898.40"/>
    </edge>
    <edge id=":1151_17" function="internal">
        <lane id=":1151_17_0" index="0" speed="3.65" length="3.23" shape="99.20,906.00 100.00,905.60 100.80,906.00 101.60,907.20"/>
    </edge>
    <edge id=":1151_4" function="internal">
        <lane id=":1151_4_0" index="0" speed="6.51" length="9.03" shape="107.20,901.60 104.75,901.95 103.00,903.00 101.95,904.75 101.60,907.20"/>
    </edge>
    <edge id=":1151_5" function="internal">
        <lane id=":1151_5_0" index="0" speed="13.89" length="14.40" shape="107.20,901.60 92.80,901.60"/>
    </edge>
    <edge id=":1151_6" function="internal">
        <lane id=":1151_6_0" index="0" speed="8.00" length="14.19" shape="107.20,901.60 103.35,901.05 100.60,899.40 98.95,896.65 98.40,892.80"/>
    </edge>
    <edge id=":1151_7" function="internal">
        <lane id=":1151_7_0" index="0" speed="3.65" length="4.67" shape="107.20,901.60 106.00,900.80 105.60,900.00 106.00,899.20 107.20,898.40"/>
    </edge>
    <edge id=":1151_8" function="internal">
        <lane id=":1151_8_0" index="0" speed="6.51" length="9.03" shape="101.60,892.80 101.95,895.25 103.00,897.00 104.75,898.05 107.20,898.40"/>
    </edge>
    <edge id=":1151_9" function="internal">
        <lane id=":1151_9_0" index="0" speed="13.89" length="14.40" shape="101.60,892.80 101.60,907.20"/>
    </edge>
    <edge id=":1151_10" function="internal">
        <lane id=":1151_10_0" index="0" speed="8.00" length="4.07" shape="101.60,892.80 101.05,896.65 100.96,896.80"/>
    </edge>
    <edge id=":1151_11" function="internal">
        <lane id=":1151_11_0" index="0" speed="3.65" length="1.44" shape="101.60,892.80 100.80,894.00"/>
    </edge>
    <edge id=":1151_18" function="internal">
        <lane id=":1151_18_0" index="0" speed="8.00" length="10.13" shape="100.96,896.80 99.40,899.40 96.65,901.05 92.80,901.60"/>
    </edge>
    <edge id=":1151_19" function="internal">
        <lane id=":1151_19_0" index="0" speed="3.65" length="3.23" shape="100.80,894.00 100.00,894.40 99.20,894.00 98.40,892.80"/>
    </edge>
    <edge id=":1151_12" function="internal">
        <lane id=":1151_12_0" index="0" speed="6.51" length="9.03" shape="92.80,898.40 95.25,898.05 97.00,897.00 98.05,895.25 98.40,892.80"/>
    </edge>
    <edge id=":1151_13" function="internal">
        <lane id=":1151_13_0" index="0" speed="13.89" length="14.40" shape="92.80,898.40 107.20,898.40"/>
    </edge>
    <edge id=":1151_14" function="internal">
        <lane id=":1151_14_0" index="0" speed="8.00" length="14.19" shape="92.80,898.40 96.65,898.95 99.40,900.60 101.05,903.35 101.60,907.20"/>
    </edge>
    <edge id=":1151_15" function="internal">
        <lane id=":1151_15_0" index="0" speed="3.65" length="4.67" shape="92.80,898.40 94.00,899.20 94.40,900.00 94.00,900.80 92.80,901.60"/>
    </edge>
    <edge id=":1156_0" function="internal">
        <lane id=":1156_0_0" index="0" speed="6.08" length="7.74" shape="203.20,1301.60 201.10,1301.30 199.60,1300.40 198.70,1298.90 198.40,1296.80"/>
    </edge>
    <edge id=":1156_1" function="internal">
        <lane id=":1156_1_0" index="0" speed="3.90" length="2.58" shape="201.60,1296.80 201.70,1297.50 202.00,1298.00 202.50,1298.30 203.20,1298.40"/>
    </edge>
    <edge id=":1156_2" function="internal">
        <lane id=":1156_2_0" index="0" speed="3.65" length="1.30" shape="201.60,1296.80 200.88,1297.88"/>
    </edge>
    <edge id=":1156_3" function="internal">
        <lane id=":1156_3_0" index="0" speed="3.65" length="3.37" shape="200.88,1297.88 200.80,1298.00 200.00,1298.40 199.20,1298.00 198.40,1296.80"/>
    </edge>
    <edge id=":1326_0" function="internal">
        <lane id=":1326_0_0" index="0" speed="13.89" length="16.80" shape="698.40,1507.20 698.75,1503.20 699.70,1498.94 701.06,1494.78 702.67,1491.08"/>
    </edge>
    <edge id=":1326_1" function="internal">
        <lane id=":1326_1_0" index="0" speed="8.42" length="4.36" shape="698.40,1507.20 699.07,1503.35 699.34,1502.99"/>
    </edge>
    <edge id=":1326_2" function="internal">
        <lane id=":1326_2_0" index="0" speed="3.65" length="1.44" shape="698.40,1507.20 699.20,1506.00"/>
    </edge>
    <edge id=":1326_9" function="internal">
        <lane id=":1326_9_0" index="0" speed="8.42" length="11.46" shape="699.34,1502.99 701.09,1500.60 704.46,1498.95 709.18,1498.40"/>
    </edge>
    <edge id=":1326_10" function="internal">
        <lane id=":1326_10_0" index="0" speed="3.65" length="3.23" shape="699.20,1506.00 700.00,1505.60 700.80,1506.00 701.60,1507.20"/>
    </edge>
    <edge id=":1326_3" function="internal">
        <lane id=":1326_3_0" index="0" speed="7.02" length="10.67" shape="709.18,1501.60 705.86,1501.95 703.49,1503.00 702.07,1504.75 701.60,1507.20"/>
    </edge>
    <edge id=":1326_4" function="internal">
        <lane id=":1326_4_0" index="0" speed="7.44" length="16.40" shape="709.18,1501.60 704.36,1500.94 701.67,1498.97 701.11,1495.68 702.67,1491.08"/>
    </edge>
    <edge id=":1326_5" function="internal">
        <lane id=":1326_5_0" index="0" speed="3.65" length="4.67" shape="709.18,1501.60 707.98,1500.80 707.58,1500.00 707.98,1499.20 709.18,1498.40"/>
    </edge>
    <edge id=":1326_6" function="internal">
        <lane id=":1326_6_0" index="0" speed="5.74" length="9.18" shape="705.54,1492.51 704.66,1495.09 704.97,1496.93 706.48,1498.03 709.18,1498.40"/>
    </edge>
    <edge id=":1326_7" function="internal">
        <lane id=":1326_7_0" index="0" speed="13.89" length="15.33" shape="705.54,1492.51 703.98,1495.99 702.73,1499.66 701.90,1503.42 701.60,1507.20"/>
    </edge>
    <edge id=":1326_8" function="internal">
        <lane id=":1326_8_0" index="0" speed="3.65" length="1.44" shape="705.54,1492.51 704.28,1493.22"/>
    </edge>
    <edge id=":1326_11" function="internal">
        <lane id=":1326_11_0" index="0" speed="3.65" length="3.23" shape="704.28,1493.22 703.39,1493.22 702.85,1492.51 702.67,1491.08"/>
    </edge>
    <edge id=":1334_0" function="internal">
        <lane id=":1334_0_0" index="0" speed="6.51" length="9.03" shape="998.40,207.20 998.05,204.75 997.00,203.00 995.25,201.95 992.80,201.60"/>
    </edge>
    <edge id=":1334_1" function="internal">
        <lane id=":1334_1_0" index="0" speed="13.89" length="14.40" shape="998.40,207.20 998.40,192.80"/>
    </edge>
    <edge id=":1334_2" function="internal">
        <lane id=":1334_2_0" index="0" speed="8.00" length="4.07" shape="998.40,207.20 998.95,203.35 999.04,203.20"/>
    </edge>
    <edge id=":1334_3" function="internal">
        <lane id=":1334_3_0" index="0" speed="3.65" length="1.44" shape="998.40,207.20 999.20,206.00"/>
    </edge>
    <edge id=":1334_16" function="internal">
        <lane id=":1334_16_0" index="0" speed="8.00" length="10.13" shape="999.04,203.20 1000.60,200.60 1003.35,198.95 1007.20,198.40"/>
    </edge>
    <edge id=":1334_17" function="internal">
        <lane id=":1334_17_0" index="0" speed="3.65" length="3.23" shape="999.20,206.00 1000.00,205.60 1000.80,206.00 1001.60,207.20"/>
    </edge>
    <edge id=":1334_4" function="internal">
        <lane id=":1334_4_0" index="0" speed="6.51" length="9.03" shape="1007.20,201.60 1004.75,201.95 1003.00,203.00 1001.95,204.75 1001.60,207.20"/>
    </edge>
    <edge id=":1334_5" function="internal">
        <lane id=":1334_5_0" index="0" speed="13.89" length="14.40" shape="1007.20,201.60 992.80,201.60"/>
    </edge>
    <edge id=":1334_6" function="internal">
        <lane id=":1334_6_0" index="0" speed="8.00" length="14.19" shape="1007.20,201.60 1003.35,201.05 1000.60,199.40 998.95,196.65 998.40,192.80"/>
    </edge>
    <edge id=":1334_7" function="internal">
        <lane id=":1334_7_0" index="0" speed="3.65" length="4.67" shape="1007.20,201.60 1006.00,200.80 1005.60,200.00 1006.00,199.20 1007.20,198.40"/>
    </edge>
    <edge id=":1334_8" function="internal">
        <lane id=":1334_8_0" index="0" speed="6.51" length="9.03" shape="1001.60,192.80 1001.95,195.25 1003.00,197.00 1004.75,198.05 1007.20,198.40"/>
    </edge>